Circuit: * Lumped Transmission Line Model

.OP point found by inspection.

Date: Sat Mar 01 20:41:49 2025
Total elapsed time: 0.504 seconds.

tnom = 27
temp = 27
method = modified trap
totiter = 7656
traniter = 7656
tranpoints = 3829
accept = 2922
rejected = 907
matrix size = 41
fillins = 0
solver = Normal
Thread vector: 95.7/43.0[2] 16.8/8.1[2] 6.2/3.3[2] 0.1/0.9[1]  2592/500
Matrix Compiler1: off  [0.6]/1.1/0.9
Matrix Compiler2: off  [0.4]/0.9/0.5

