Circuit: * Lumped Transmission Line Model

.OP point found by inspection.

Date: Sat Mar 01 20:41:46 2025
Total elapsed time: 0.171 seconds.

tnom = 27
temp = 27
method = modified trap
totiter = 2730
traniter = 2730
tranpoints = 1366
accept = 1239
rejected = 127
matrix size = 43
fillins = 0
solver = Normal
Matrix Compiler1: 2.00 KB object code size  1.6/1.2/[0.6]
Matrix Compiler2: off  [0.6]/2.8/1.3

