Circuit: * Lumped Transmission Line Model

.OP point found by inspection.

Date: Sat Feb 22 16:38:06 2025
Total elapsed time: 0.226 seconds.

tnom = 27
temp = 27
method = modified trap
totiter = 3538
traniter = 3538
tranpoints = 1770
accept = 1480
rejected = 290
matrix size = 40
fillins = 0
solver = Normal
Thread vector: 3.8/7.5[1] 17.2/6.8[3] 0.2/0.7[1] 0.1/7.1[1]  2592/500
Matrix Compiler1: 1.86 KB object code size  2.1/0.5/[0.4]
Matrix Compiler2: 2.81 KB object code size  0.5/0.7/[0.4]

