Circuit: * Lumped Transmission Line Model

.OP point found by inspection.

Date: Sat Feb 22 16:36:12 2025
Total elapsed time: 0.186 seconds.

tnom = 27
temp = 27
method = modified trap
totiter = 7656
traniter = 7656
tranpoints = 3829
accept = 2922
rejected = 907
matrix size = 41
fillins = 0
solver = Normal
Matrix Compiler1: off  [0.6]/0.9/0.8
Matrix Compiler2: off  [0.4]/0.6/0.5

