Circuit: * Lumped Transmission Line Model

.OP point found by inspection.

Date: Sat Feb 22 16:46:28 2025
Total elapsed time: 0.188 seconds.

tnom = 27
temp = 27
method = modified trap
totiter = 2742
traniter = 2742
tranpoints = 1372
accept = 1240
rejected = 132
matrix size = 42
fillins = 0
solver = Normal
Thread vector: 33.1/25.6[3] 5.3/7.4[1] 0.3/49.2[1] 0.5/1.9[1]  2592/500
Matrix Compiler1: off  [0.6]/9.8/1.2
Matrix Compiler2: off  [0.5]/1.7/0.5

