Circuit: * Lumped Transmission Line Model

.OP point found by inspection.

Date: Sat Feb 22 16:43:21 2025
Total elapsed time: 0.164 seconds.

tnom = 27
temp = 27
method = modified trap
totiter = 3534
traniter = 3534
tranpoints = 1768
accept = 1485
rejected = 283
matrix size = 41
fillins = 0
solver = Normal
Thread vector: 3.4/5.8[1] 21.9/5.4[3] 0.2/1.8[1] 0.2/348.0[1]  2592/500
Matrix Compiler1: 1.90 KB object code size  4.9/0.5/[0.5]
Matrix Compiler2: 2.88 KB object code size  0.5/2.1/[0.5]

