Circuit: * Full Transmission Line Model

WARNING: Node GOUT is floating.

.OP point found by inspection.

Date: Sat Feb 22 16:55:24 2025
Total elapsed time: 0.159 seconds.

tnom = 27
temp = 27
method = modified trap
totiter = 2122
traniter = 2122
tranpoints = 1062
accept = 1056
rejected = 6
matrix size = 9
fillins = 4
solver = Normal
Matrix Compiler1: 618 bytes object code size  0.2/0.1/[0.1]
Matrix Compiler2: 723 bytes object code size  0.1/0.1/[0.1]

