Circuit: * Lumped Transmission Line Model

.OP point found by inspection.

Date: Sun Feb 16 19:40:09 2025
Total elapsed time: 0.150 seconds.

tnom = 27
temp = 27
method = modified trap
totiter = 4046
traniter = 4046
tranpoints = 2024
accept = 1531
rejected = 493
matrix size = 41
fillins = 0
solver = Normal
Matrix Compiler1: 1.90 KB object code size  0.9/1.2/[0.5]
Matrix Compiler2: 2.88 KB object code size  0.6/1.0/[0.5]

