Circuit: * Lumped Transmission Line Model

.OP point found by inspection.

Date: Sun Feb 16 19:42:40 2025
Total elapsed time: 0.112 seconds.

tnom = 27
temp = 27
method = modified trap
totiter = 2142
traniter = 2142
tranpoints = 1072
accept = 1062
rejected = 10
matrix size = 13
fillins = 0
solver = Normal
Matrix Compiler1: 550 bytes object code size  0.1/0.1/[0.1]
Matrix Compiler2: 905 bytes object code size  0.1/0.2/[0.1]

