Circuit: * Lumped Transmission Line Model

.OP point found by inspection.

Date: Sun Feb 16 19:37:58 2025
Total elapsed time: 0.218 seconds.

tnom = 27
temp = 27
method = modified trap
totiter = 2280
traniter = 2280
tranpoints = 1141
accept = 1095
rejected = 46
matrix size = 28
fillins = 0
solver = Normal
Thread vector: 2.6/365.8[1] 403.8/3.5[2] 0.4/1.9[1] 0.2/1184.4[1]  2592/500
Matrix Compiler1: 1.27 KB object code size  0.4/1.3/[0.4]
Matrix Compiler2: off  [0.3]/0.8/0.4

