Circuit: * Lumped Transmission Line Model

.OP point found by inspection.

Date: Sat Mar 01 20:29:34 2025
Total elapsed time: 0.218 seconds.

tnom = 27
temp = 27
method = modified trap
totiter = 4046
traniter = 4046
tranpoints = 2024
accept = 1531
rejected = 493
matrix size = 41
fillins = 0
solver = Normal
Thread vector: 10.7/18.4[1] 6.4/3.3[2] 0.6/0.5[2] 0.2/53.7[1]  2592/500
Matrix Compiler1: 1.90 KB object code size  3.6/2.2/[0.5]
Matrix Compiler2: 2.88 KB object code size  0.8/0.9/[0.5]

