Circuit: * Lumped Transmission Line Model

.OP point found by inspection.

Date: Sun Feb 16 19:41:35 2025
Total elapsed time: 0.397 seconds.

tnom = 27
temp = 27
method = modified trap
totiter = 4414
traniter = 4414
tranpoints = 2208
accept = 1683
rejected = 525
matrix size = 53
fillins = 0
solver = Normal
Thread vector: 4.7/9.1[1] 47.9/21.9[5] 1.7/1.5[3] 0.2/2.3[1]  2592/500
Matrix Compiler1: 2.49 KB object code size  0.8/1.2/[0.7]
Matrix Compiler2: off  [0.6]/81.3/1.3

