Circuit: * Lumped Transmission Line Model

.OP point found by inspection.

Date: Sun Feb 16 19:43:51 2025
Total elapsed time: 0.098 seconds.

tnom = 27
temp = 27
method = modified trap
totiter = 2122
traniter = 2122
tranpoints = 1062
accept = 1056
rejected = 6
matrix size = 4
fillins = 0
solver = Normal
Matrix Compiler1: 100 bytes object code size  0.0/0.0/[0.0]
Matrix Compiler2: off  [0.0]/0.1/0.0

