Circuit: * Lumped Transmission Line Model

.OP point found by inspection.

Date: Sun Feb 16 20:38:25 2025
Total elapsed time: 0.210 seconds.

tnom = 27
temp = 27
method = modified trap
totiter = 4046
traniter = 4046
tranpoints = 2024
accept = 1531
rejected = 493
matrix size = 41
fillins = 0
solver = Normal
Matrix Compiler1: 1.90 KB object code size  0.7/0.8/[0.5]
Matrix Compiler2: off  [0.5]/0.9/0.5

