Circuit: * Lumped Transmission Line Model

.OP point found by inspection.

Date: Sun Feb 16 20:35:56 2025
Total elapsed time: 0.071 seconds.

tnom = 27
temp = 27
method = modified trap
totiter = 2242
traniter = 2242
tranpoints = 1122
accept = 1105
rejected = 17
matrix size = 4
fillins = 0
solver = Normal
Matrix Compiler1: 100 bytes object code size  0.0/0.0/[0.0]
Matrix Compiler2: 248 bytes object code size  0.0/0.1/[0.0]

