Circuit: * Full Model

WARNING: Node GOUT is floating.

.OP point found by inspection.

Date: Sat Feb 22 17:00:02 2025
Total elapsed time: 0.163 seconds.

tnom = 27
temp = 27
method = modified trap
totiter = 2220
traniter = 2220
tranpoints = 1111
accept = 1092
rejected = 19
matrix size = 9
fillins = 4
solver = Normal
Matrix Compiler1: 618 bytes object code size  0.1/0.1/[0.1]
Matrix Compiler2: 723 bytes object code size  0.1/0.1/[0.1]

